<?xml version="1.0" encoding="UTF-8"?>
<net version="1.9" junctionCornerDetail="5" limitTurnSpeed="5.50" xmlns:xsi="http://www.w3.org/2001/XMLSchema-instance" xsi:noNamespaceSchemaLocation="http://sumo.dlr.de/xsd/net_file.xsd">
    <location netOffset="0.00,0.00" convBoundary="0.00,0.00,5000.00,0.00" origBoundary="-10000000000.00,-10000000000.00,10000000000.00,10000000000.00" projParameter="!"/>
    
    <edge id="highway" from="start" to="end" priority="1">
        <lane id="highway_0" index="0" speed="50.00" length="5000.00" shape="0.00,-1.60 5000.00,-1.60"/>
    </edge>
    
    <junction id="start" type="dead_end" x="0.00" y="0.00" incLanes="" intLanes="" shape="0.00,0.00 0.00,-3.20"/>
    <junction id="end" type="dead_end" x="5000.00" y="0.00" incLanes="highway_0" intLanes="" shape="5000.00,-3.20 5000.00,0.00"/>
</net>