<?xml version="1.0" encoding="UTF-8"?>
<routes xmlns:xsi="http://www.w3.org/2001/XMLSchema-instance" xsi:noNamespaceSchemaLocation="http://sumo.dlr.de/xsd/routes_file.xsd">
    <vType id="leader_vehicle" accel="3.5" decel="3.5" sigma="0" length="3.2" maxSpeed="50"/>
    <vType id="platoon_vehicle" accel="3.5" decel="3.5" sigma="0" length="3.2" maxSpeed="50"/>
    
    <route id="highway_route" edges="highway"/>
</routes>